Version 4
SHEET 1 2392 832
WIRE 544 -256 256 -256
WIRE 816 -256 624 -256
WIRE 976 -256 896 -256
WIRE 256 -144 256 -256
WIRE 256 -32 256 -64
WIRE 976 -32 976 -256
WIRE 976 -32 256 -32
WIRE 256 32 256 -32
WIRE 528 224 272 224
WIRE 784 224 608 224
WIRE 1264 224 864 224
WIRE 272 432 272 224
WIRE 1264 432 1264 224
WIRE 272 560 272 512
WIRE 1264 560 1264 512
WIRE 1264 560 272 560
WIRE 272 608 272 560
FLAG 272 608 0
FLAG 256 32 0
FLAG 272 224 vin
SYMBOL bv 272 416 R0
SYMATTR InstName Bin
SYMATTR Value V= k1 * I(BT) - k2 * I(Bemf)
SYMBOL res-dir 512 240 R270
WINDOW 0 32 56 VTop 2
WINDOW 3 0 56 VBottom 2
SYMATTR InstName R1
SYMATTR Value 5.5
SYMBOL ind-dir 768 240 R270
WINDOW 0 32 56 VTop 2
WINDOW 3 5 56 VBottom 2
SYMATTR InstName L1
SYMATTR Value 50µ
SYMATTR SpiceLine Rser=0
SYMBOL bv 1264 416 R0
SYMATTR InstName Bemf
SYMATTR Value V=9e-4*I(R2)
SYMBOL bv 256 -160 R0
SYMATTR InstName BT
SYMATTR Value V=9e-4*I(R1)
SYMBOL res-dir 528 -240 R270
WINDOW 0 32 56 VTop 2
WINDOW 3 0 56 VBottom 2
SYMATTR InstName R2
SYMATTR Value 300n
SYMBOL ind-dir 800 -240 R270
WINDOW 0 32 56 VTop 2
WINDOW 3 5 56 VBottom 2
SYMATTR InstName L2
SYMATTR Value 15n
SYMATTR SpiceLine Rser=0
TEXT 464 696 Left 2 !.tran 1m
TEXT 464 736 Left 2 !.param k1=0.99706985\n.param k2=0.60183735
TEXT 472 816 Left 2 !.ic I(L2)=500
TEXT 656 816 Left 2 ;Sets initial condition for state variable
TEXT 784 760 Left 2 ;You can use .PARAM Directive to define variables
TEXT 328 312 Left 2 ;You can use B voltage source elements to define comlicated \nfunctions. Make sure the polarity of your measured quanity is correct.\n You can add an extra negation if it is not your desired polarity
